CM Length L in mtr. = 0
CM Radius R1 in cm. = 1
CM Radius R2 in cm. = 1
CM Number of turns = 1
CM Segments per turn = 20
CM Rotate X, Y, Z = 0, 0, 0
CM Move X, Y, Z = 0, 0, 0
CE
SY freq = 299.8	'Frequency
SY c = 299792458	'Speed of Light
SY lambda = c/freq/1e6	'Wave Length
SY seg = 11	'Number of Segments (odd)
SY radius = 1e-6*lambda	'Radius
SY dip_length = 0.01*lambda	'Dipolo Length
GW	1	1	.01	0	0	.009511	.00309	0	.000001
GW	2	1	.009511	.00309	0	.00809	.005878	0	.000001
GW	3	1	.00809	.005878	0	.005878	.00809	0	.000001
GW	4	1	.005878	.00809	0	.00309	.009511	0	.000001
GW	5	1	.00309	.009511	0	0	.01	0	.000001
GW	6	1	0	.01	0	-.00309	.009511	0	.000001
GW	7	1	-.00309	.009511	0	-.005878	.00809	0	.000001
GW	8	1	-.005878	.00809	0	-.00809	.005878	0	.000001
GW	9	1	-.00809	.005878	0	-.009511	.00309	0	.000001
GW	10	1	-.009511	.00309	0	-.01	0	0	.000001
GW	11	1	-.01	0	0	-.009511	-.00309	0	.000001
GW	12	1	-.009511	-.00309	0	-.00809	-.005878	0	.000001
GW	13	1	-.00809	-.005878	0	-.005878	-.00809	0	.000001
GW	14	1	-.005878	-.00809	0	-.00309	-.009511	0	.000001
GW	15	1	-.00309	-.009511	0	0	-.01	0	.000001
GW	16	1	0	-.01	0	.00309	-.009511	0	.000001
GW	17	1	.00309	-.009511	0	.005878	-.00809	0	.000001
GW	18	1	.005878	-.00809	0	.00809	-.005878	0	.000001
GW	19	1	.00809	-.005878	0	.009511	-.00309	0	.000001
GW	20	1	.009511	-.00309	0	.01	0	0	.000001
GW	21	seg	0	0	-dip_length/2	0	0	dip_length/2	radius
GE	0
GN	-1
EK
EX	6	1	1	0	2.6	0	0
EX	6	21	6	0	1	0	0
FR	0	0	0	0	299.8	0
EN
