CM Length L in mtr. = 1.16
CM Radius R1 in cm. = 7.96
CM Radius R2 in cm. = 7.96
CM Number of turns = 10
CM Segments per turn = 40
CM Rotate X, Y, Z = 0, 0, 0
CM Move X, Y, Z = 0, 0, 0
CE
GW     1    1    .0796       .0       .0   .07862 -.012452    .0029   .00001
GW     2    1   .07862 -.012452    .0029  .075704 -.024598    .0058   .00001
GW     3    1  .075704 -.024598    .0058  .070924 -.036138    .0087   .00001
GW     4    1  .070924 -.036138    .0087  .064398 -.046788    .0116   .00001
GW     5    1  .064398 -.046788    .0116  .056286 -.056286    .0145   .00001
GW     6    1  .056286 -.056286    .0145  .046788 -.064398    .0174   .00001
GW     7    1  .046788 -.064398    .0174  .036138 -.070924    .0203   .00001
GW     8    1  .036138 -.070924    .0203  .024598 -.075704    .0232   .00001
GW     9    1  .024598 -.075704    .0232  .012452  -.07862    .0261   .00001
GW    10    1  .012452  -.07862    .0261       .0   -.0796     .029   .00001
GW    11    1       .0   -.0796     .029 -.012452  -.07862    .0319   .00001
GW    12    1 -.012452  -.07862    .0319 -.024598 -.075704    .0348   .00001
GW    13    1 -.024598 -.075704    .0348 -.036138 -.070924    .0377   .00001
GW    14    1 -.036138 -.070924    .0377 -.046788 -.064398    .0406   .00001
GW    15    1 -.046788 -.064398    .0406 -.056286 -.056286    .0435   .00001
GW    16    1 -.056286 -.056286    .0435 -.064398 -.046788    .0464   .00001
GW    17    1 -.064398 -.046788    .0464 -.070924 -.036138    .0493   .00001
GW    18    1 -.070924 -.036138    .0493 -.075704 -.024598    .0522   .00001
GW    19    1 -.075704 -.024598    .0522  -.07862 -.012452    .0551   .00001
GW    20    1  -.07862 -.012452    .0551   -.0796       .0     .058   .00001
GW    21    1   -.0796       .0     .058  -.07862  .012452    .0609   .00001
GW    22    1  -.07862  .012452    .0609 -.075704  .024598    .0638   .00001
GW    23    1 -.075704  .024598    .0638 -.070924  .036138    .0667   .00001
GW    24    1 -.070924  .036138    .0667 -.064398  .046788    .0696   .00001
GW    25    1 -.064398  .046788    .0696 -.056286  .056286    .0725   .00001
GW    26    1 -.056286  .056286    .0725 -.046788  .064398    .0754   .00001
GW    27    1 -.046788  .064398    .0754 -.036138  .070924    .0783   .00001
GW    28    1 -.036138  .070924    .0783 -.024598  .075704    .0812   .00001
GW    29    1 -.024598  .075704    .0812 -.012452   .07862    .0841   .00001
GW    30    1 -.012452   .07862    .0841       .0    .0796     .087   .00001
GW    31    1       .0    .0796     .087  .012452   .07862    .0899   .00001
GW    32    1  .012452   .07862    .0899  .024598  .075704    .0928   .00001
GW    33    1  .024598  .075704    .0928  .036138  .070924    .0957   .00001
GW    34    1  .036138  .070924    .0957  .046788  .064398    .0986   .00001
GW    35    1  .046788  .064398    .0986  .056286  .056286    .1015   .00001
GW    36    1  .056286  .056286    .1015  .064398  .046788    .1044   .00001
GW    37    1  .064398  .046788    .1044  .070924  .036138    .1073   .00001
GW    38    1  .070924  .036138    .1073  .075704  .024598    .1102   .00001
GW    39    1  .075704  .024598    .1102   .07862  .012452    .1131   .00001
GW    40    1   .07862  .012452    .1131    .0796       .0     .116   .00001
GW    41    1    .0796       .0     .116   .07862 -.012452    .1189   .00001
GW    42    1   .07862 -.012452    .1189  .075704 -.024598    .1218   .00001
GW    43    1  .075704 -.024598    .1218  .070924 -.036138    .1247   .00001
GW    44    1  .070924 -.036138    .1247  .064398 -.046788    .1276   .00001
GW    45    1  .064398 -.046788    .1276  .056286 -.056286    .1305   .00001
GW    46    1  .056286 -.056286    .1305  .046788 -.064398    .1334   .00001
GW    47    1  .046788 -.064398    .1334  .036138 -.070924    .1363   .00001
GW    48    1  .036138 -.070924    .1363  .024598 -.075704    .1392   .00001
GW    49    1  .024598 -.075704    .1392  .012452  -.07862    .1421   .00001
GW    50    1  .012452  -.07862    .1421       .0   -.0796     .145   .00001
GW    51    1       .0   -.0796     .145 -.012452  -.07862    .1479   .00001
GW    52    1 -.012452  -.07862    .1479 -.024598 -.075704    .1508   .00001
GW    53    1 -.024598 -.075704    .1508 -.036138 -.070924    .1537   .00001
GW    54    1 -.036138 -.070924    .1537 -.046788 -.064398    .1566   .00001
GW    55    1 -.046788 -.064398    .1566 -.056286 -.056286    .1595   .00001
GW    56    1 -.056286 -.056286    .1595 -.064398 -.046788    .1624   .00001
GW    57    1 -.064398 -.046788    .1624 -.070924 -.036138    .1653   .00001
GW    58    1 -.070924 -.036138    .1653 -.075704 -.024598    .1682   .00001
GW    59    1 -.075704 -.024598    .1682  -.07862 -.012452    .1711   .00001
GW    60    1  -.07862 -.012452    .1711   -.0796       .0     .174   .00001
GW    61    1   -.0796       .0     .174  -.07862  .012452    .1769   .00001
GW    62    1  -.07862  .012452    .1769 -.075704  .024598    .1798   .00001
GW    63    1 -.075704  .024598    .1798 -.070924  .036138    .1827   .00001
GW    64    1 -.070924  .036138    .1827 -.064398  .046788    .1856   .00001
GW    65    1 -.064398  .046788    .1856 -.056286  .056286    .1885   .00001
GW    66    1 -.056286  .056286    .1885 -.046788  .064398    .1914   .00001
GW    67    1 -.046788  .064398    .1914 -.036138  .070924    .1943   .00001
GW    68    1 -.036138  .070924    .1943 -.024598  .075704    .1972   .00001
GW    69    1 -.024598  .075704    .1972 -.012452   .07862    .2001   .00001
GW    70    1 -.012452   .07862    .2001       .0    .0796     .203   .00001
GW    71    1       .0    .0796     .203  .012452   .07862    .2059   .00001
GW    72    1  .012452   .07862    .2059  .024598  .075704    .2088   .00001
GW    73    1  .024598  .075704    .2088  .036138  .070924    .2117   .00001
GW    74    1  .036138  .070924    .2117  .046788  .064398    .2146   .00001
GW    75    1  .046788  .064398    .2146  .056286  .056286    .2175   .00001
GW    76    1  .056286  .056286    .2175  .064398  .046788    .2204   .00001
GW    77    1  .064398  .046788    .2204  .070924  .036138    .2233   .00001
GW    78    1  .070924  .036138    .2233  .075704  .024598    .2262   .00001
GW    79    1  .075704  .024598    .2262   .07862  .012452    .2291   .00001
GW    80    1   .07862  .012452    .2291    .0796       .0     .232   .00001
GW    81    1    .0796       .0     .232   .07862 -.012452    .2349   .00001
GW    82    1   .07862 -.012452    .2349  .075704 -.024598    .2378   .00001
GW    83    1  .075704 -.024598    .2378  .070924 -.036138    .2407   .00001
GW    84    1  .070924 -.036138    .2407  .064398 -.046788    .2436   .00001
GW    85    1  .064398 -.046788    .2436  .056286 -.056286    .2465   .00001
GW    86    1  .056286 -.056286    .2465  .046788 -.064398    .2494   .00001
GW    87    1  .046788 -.064398    .2494  .036138 -.070924    .2523   .00001
GW    88    1  .036138 -.070924    .2523  .024598 -.075704    .2552   .00001
GW    89    1  .024598 -.075704    .2552  .012452  -.07862    .2581   .00001
GW    90    1  .012452  -.07862    .2581       .0   -.0796     .261   .00001
GW    91    1       .0   -.0796     .261 -.012452  -.07862    .2639   .00001
GW    92    1 -.012452  -.07862    .2639 -.024598 -.075704    .2668   .00001
GW    93    1 -.024598 -.075704    .2668 -.036138 -.070924    .2697   .00001
GW    94    1 -.036138 -.070924    .2697 -.046788 -.064398    .2726   .00001
GW    95    1 -.046788 -.064398    .2726 -.056286 -.056286    .2755   .00001
GW    96    1 -.056286 -.056286    .2755 -.064398 -.046788    .2784   .00001
GW    97    1 -.064398 -.046788    .2784 -.070924 -.036138    .2813   .00001
GW    98    1 -.070924 -.036138    .2813 -.075704 -.024598    .2842   .00001
GW    99    1 -.075704 -.024598    .2842  -.07862 -.012452    .2871   .00001
GW   100    1  -.07862 -.012452    .2871   -.0796       .0      .29   .00001
GW   101    1   -.0796       .0      .29  -.07862  .012452    .2929   .00001
GW   102    1  -.07862  .012452    .2929 -.075704  .024598    .2958   .00001
GW   103    1 -.075704  .024598    .2958 -.070924  .036138    .2987   .00001
GW   104    1 -.070924  .036138    .2987 -.064398  .046788    .3016   .00001
GW   105    1 -.064398  .046788    .3016 -.056286  .056286    .3045   .00001
GW   106    1 -.056286  .056286    .3045 -.046788  .064398    .3074   .00001
GW   107    1 -.046788  .064398    .3074 -.036138  .070924    .3103   .00001
GW   108    1 -.036138  .070924    .3103 -.024598  .075704    .3132   .00001
GW   109    1 -.024598  .075704    .3132 -.012452   .07862    .3161   .00001
GW   110    1 -.012452   .07862    .3161       .0    .0796     .319   .00001
GW   111    1       .0    .0796     .319  .012452   .07862    .3219   .00001
GW   112    1  .012452   .07862    .3219  .024598  .075704    .3248   .00001
GW   113    1  .024598  .075704    .3248  .036138  .070924    .3277   .00001
GW   114    1  .036138  .070924    .3277  .046788  .064398    .3306   .00001
GW   115    1  .046788  .064398    .3306  .056286  .056286    .3335   .00001
GW   116    1  .056286  .056286    .3335  .064398  .046788    .3364   .00001
GW   117    1  .064398  .046788    .3364  .070924  .036138    .3393   .00001
GW   118    1  .070924  .036138    .3393  .075704  .024598    .3422   .00001
GW   119    1  .075704  .024598    .3422   .07862  .012452    .3451   .00001
GW   120    1   .07862  .012452    .3451    .0796       .0     .348   .00001
GW   121    1    .0796       .0     .348   .07862 -.012452    .3509   .00001
GW   122    1   .07862 -.012452    .3509  .075704 -.024598    .3538   .00001
GW   123    1  .075704 -.024598    .3538  .070924 -.036138    .3567   .00001
GW   124    1  .070924 -.036138    .3567  .064398 -.046788    .3596   .00001
GW   125    1  .064398 -.046788    .3596  .056286 -.056286    .3625   .00001
GW   126    1  .056286 -.056286    .3625  .046788 -.064398    .3654   .00001
GW   127    1  .046788 -.064398    .3654  .036138 -.070924    .3683   .00001
GW   128    1  .036138 -.070924    .3683  .024598 -.075704    .3712   .00001
GW   129    1  .024598 -.075704    .3712  .012452  -.07862    .3741   .00001
GW   130    1  .012452  -.07862    .3741       .0   -.0796     .377   .00001
GW   131    1       .0   -.0796     .377 -.012452  -.07862    .3799   .00001
GW   132    1 -.012452  -.07862    .3799 -.024598 -.075704    .3828   .00001
GW   133    1 -.024598 -.075704    .3828 -.036138 -.070924    .3857   .00001
GW   134    1 -.036138 -.070924    .3857 -.046788 -.064398    .3886   .00001
GW   135    1 -.046788 -.064398    .3886 -.056286 -.056286    .3915   .00001
GW   136    1 -.056286 -.056286    .3915 -.064398 -.046788    .3944   .00001
GW   137    1 -.064398 -.046788    .3944 -.070924 -.036138    .3973   .00001
GW   138    1 -.070924 -.036138    .3973 -.075704 -.024598    .4002   .00001
GW   139    1 -.075704 -.024598    .4002  -.07862 -.012452    .4031   .00001
GW   140    1  -.07862 -.012452    .4031   -.0796       .0     .406   .00001
GW   141    1   -.0796       .0     .406  -.07862  .012452    .4089   .00001
GW   142    1  -.07862  .012452    .4089 -.075704  .024598    .4118   .00001
GW   143    1 -.075704  .024598    .4118 -.070924  .036138    .4147   .00001
GW   144    1 -.070924  .036138    .4147 -.064398  .046788    .4176   .00001
GW   145    1 -.064398  .046788    .4176 -.056286  .056286    .4205   .00001
GW   146    1 -.056286  .056286    .4205 -.046788  .064398    .4234   .00001
GW   147    1 -.046788  .064398    .4234 -.036138  .070924    .4263   .00001
GW   148    1 -.036138  .070924    .4263 -.024598  .075704    .4292   .00001
GW   149    1 -.024598  .075704    .4292 -.012452   .07862    .4321   .00001
GW   150    1 -.012452   .07862    .4321       .0    .0796     .435   .00001
GW   151    1       .0    .0796     .435  .012452   .07862    .4379   .00001
GW   152    1  .012452   .07862    .4379  .024598  .075704    .4408   .00001
GW   153    1  .024598  .075704    .4408  .036138  .070924    .4437   .00001
GW   154    1  .036138  .070924    .4437  .046788  .064398    .4466   .00001
GW   155    1  .046788  .064398    .4466  .056286  .056286    .4495   .00001
GW   156    1  .056286  .056286    .4495  .064398  .046788    .4524   .00001
GW   157    1  .064398  .046788    .4524  .070924  .036138    .4553   .00001
GW   158    1  .070924  .036138    .4553  .075704  .024598    .4582   .00001
GW   159    1  .075704  .024598    .4582   .07862  .012452    .4611   .00001
GW   160    1   .07862  .012452    .4611    .0796       .0     .464   .00001
GW   161    1    .0796       .0     .464   .07862 -.012452    .4669   .00001
GW   162    1   .07862 -.012452    .4669  .075704 -.024598    .4698   .00001
GW   163    1  .075704 -.024598    .4698  .070924 -.036138    .4727   .00001
GW   164    1  .070924 -.036138    .4727  .064398 -.046788    .4756   .00001
GW   165    1  .064398 -.046788    .4756  .056286 -.056286    .4785   .00001
GW   166    1  .056286 -.056286    .4785  .046788 -.064398    .4814   .00001
GW   167    1  .046788 -.064398    .4814  .036138 -.070924    .4843   .00001
GW   168    1  .036138 -.070924    .4843  .024598 -.075704    .4872   .00001
GW   169    1  .024598 -.075704    .4872  .012452  -.07862    .4901   .00001
GW   170    1  .012452  -.07862    .4901       .0   -.0796     .493   .00001
GW   171    1       .0   -.0796     .493 -.012452  -.07862    .4959   .00001
GW   172    1 -.012452  -.07862    .4959 -.024598 -.075704    .4988   .00001
GW   173    1 -.024598 -.075704    .4988 -.036138 -.070924    .5017   .00001
GW   174    1 -.036138 -.070924    .5017 -.046788 -.064398    .5046   .00001
GW   175    1 -.046788 -.064398    .5046 -.056286 -.056286    .5075   .00001
GW   176    1 -.056286 -.056286    .5075 -.064398 -.046788    .5104   .00001
GW   177    1 -.064398 -.046788    .5104 -.070924 -.036138    .5133   .00001
GW   178    1 -.070924 -.036138    .5133 -.075704 -.024598    .5162   .00001
GW   179    1 -.075704 -.024598    .5162  -.07862 -.012452    .5191   .00001
GW   180    1  -.07862 -.012452    .5191   -.0796       .0     .522   .00001
GW   181    1   -.0796       .0     .522  -.07862  .012452    .5249   .00001
GW   182    1  -.07862  .012452    .5249 -.075704  .024598    .5278   .00001
GW   183    1 -.075704  .024598    .5278 -.070924  .036138    .5307   .00001
GW   184    1 -.070924  .036138    .5307 -.064398  .046788    .5336   .00001
GW   185    1 -.064398  .046788    .5336 -.056286  .056286    .5365   .00001
GW   186    1 -.056286  .056286    .5365 -.046788  .064398    .5394   .00001
GW   187    1 -.046788  .064398    .5394 -.036138  .070924    .5423   .00001
GW   188    1 -.036138  .070924    .5423 -.024598  .075704    .5452   .00001
GW   189    1 -.024598  .075704    .5452 -.012452   .07862    .5481   .00001
GW   190    1 -.012452   .07862    .5481       .0    .0796     .551   .00001
GW   191    1       .0    .0796     .551  .012452   .07862    .5539   .00001
GW   192    1  .012452   .07862    .5539  .024598  .075704    .5568   .00001
GW   193    1  .024598  .075704    .5568  .036138  .070924    .5597   .00001
GW   194    1  .036138  .070924    .5597  .046788  .064398    .5626   .00001
GW   195    1  .046788  .064398    .5626  .056286  .056286    .5655   .00001
GW   196    1  .056286  .056286    .5655  .064398  .046788    .5684   .00001
GW   197    1  .064398  .046788    .5684  .070924  .036138    .5713   .00001
GW   198    1  .070924  .036138    .5713  .075704  .024598    .5742   .00001
GW   199    1  .075704  .024598    .5742   .07862  .012452    .5771   .00001
GW   200    1   .07862  .012452    .5771    .0796       .0      .58   .00001
GW   201    1    .0796       .0      .58   .07862 -.012452    .5829   .00001
GW   202    1   .07862 -.012452    .5829  .075704 -.024598    .5858   .00001
GW   203    1  .075704 -.024598    .5858  .070924 -.036138    .5887   .00001
GW   204    1  .070924 -.036138    .5887  .064398 -.046788    .5916   .00001
GW   205    1  .064398 -.046788    .5916  .056286 -.056286    .5945   .00001
GW   206    1  .056286 -.056286    .5945  .046788 -.064398    .5974   .00001
GW   207    1  .046788 -.064398    .5974  .036138 -.070924    .6003   .00001
GW   208    1  .036138 -.070924    .6003  .024598 -.075704    .6032   .00001
GW   209    1  .024598 -.075704    .6032  .012452  -.07862    .6061   .00001
GW   210    1  .012452  -.07862    .6061       .0   -.0796     .609   .00001
GW   211    1       .0   -.0796     .609 -.012452  -.07862    .6119   .00001
GW   212    1 -.012452  -.07862    .6119 -.024598 -.075704    .6148   .00001
GW   213    1 -.024598 -.075704    .6148 -.036138 -.070924    .6177   .00001
GW   214    1 -.036138 -.070924    .6177 -.046788 -.064398    .6206   .00001
GW   215    1 -.046788 -.064398    .6206 -.056286 -.056286    .6235   .00001
GW   216    1 -.056286 -.056286    .6235 -.064398 -.046788    .6264   .00001
GW   217    1 -.064398 -.046788    .6264 -.070924 -.036138    .6293   .00001
GW   218    1 -.070924 -.036138    .6293 -.075704 -.024598    .6322   .00001
GW   219    1 -.075704 -.024598    .6322  -.07862 -.012452    .6351   .00001
GW   220    1  -.07862 -.012452    .6351   -.0796       .0     .638   .00001
GW   221    1   -.0796       .0     .638  -.07862  .012452    .6409   .00001
GW   222    1  -.07862  .012452    .6409 -.075704  .024598    .6438   .00001
GW   223    1 -.075704  .024598    .6438 -.070924  .036138    .6467   .00001
GW   224    1 -.070924  .036138    .6467 -.064398  .046788    .6496   .00001
GW   225    1 -.064398  .046788    .6496 -.056286  .056286    .6525   .00001
GW   226    1 -.056286  .056286    .6525 -.046788  .064398    .6554   .00001
GW   227    1 -.046788  .064398    .6554 -.036138  .070924    .6583   .00001
GW   228    1 -.036138  .070924    .6583 -.024598  .075704    .6612   .00001
GW   229    1 -.024598  .075704    .6612 -.012452   .07862    .6641   .00001
GW   230    1 -.012452   .07862    .6641       .0    .0796     .667   .00001
GW   231    1       .0    .0796     .667  .012452   .07862    .6699   .00001
GW   232    1  .012452   .07862    .6699  .024598  .075704    .6728   .00001
GW   233    1  .024598  .075704    .6728  .036138  .070924    .6757   .00001
GW   234    1  .036138  .070924    .6757  .046788  .064398    .6786   .00001
GW   235    1  .046788  .064398    .6786  .056286  .056286    .6815   .00001
GW   236    1  .056286  .056286    .6815  .064398  .046788    .6844   .00001
GW   237    1  .064398  .046788    .6844  .070924  .036138    .6873   .00001
GW   238    1  .070924  .036138    .6873  .075704  .024598    .6902   .00001
GW   239    1  .075704  .024598    .6902   .07862  .012452    .6931   .00001
GW   240    1   .07862  .012452    .6931    .0796       .0     .696   .00001
GW   241    1    .0796       .0     .696   .07862 -.012452    .6989   .00001
GW   242    1   .07862 -.012452    .6989  .075704 -.024598    .7018   .00001
GW   243    1  .075704 -.024598    .7018  .070924 -.036138    .7047   .00001
GW   244    1  .070924 -.036138    .7047  .064398 -.046788    .7076   .00001
GW   245    1  .064398 -.046788    .7076  .056286 -.056286    .7105   .00001
GW   246    1  .056286 -.056286    .7105  .046788 -.064398    .7134   .00001
GW   247    1  .046788 -.064398    .7134  .036138 -.070924    .7163   .00001
GW   248    1  .036138 -.070924    .7163  .024598 -.075704    .7192   .00001
GW   249    1  .024598 -.075704    .7192  .012452  -.07862    .7221   .00001
GW   250    1  .012452  -.07862    .7221       .0   -.0796     .725   .00001
GW   251    1       .0   -.0796     .725 -.012452  -.07862    .7279   .00001
GW   252    1 -.012452  -.07862    .7279 -.024598 -.075704    .7308   .00001
GW   253    1 -.024598 -.075704    .7308 -.036138 -.070924    .7337   .00001
GW   254    1 -.036138 -.070924    .7337 -.046788 -.064398    .7366   .00001
GW   255    1 -.046788 -.064398    .7366 -.056286 -.056286    .7395   .00001
GW   256    1 -.056286 -.056286    .7395 -.064398 -.046788    .7424   .00001
GW   257    1 -.064398 -.046788    .7424 -.070924 -.036138    .7453   .00001
GW   258    1 -.070924 -.036138    .7453 -.075704 -.024598    .7482   .00001
GW   259    1 -.075704 -.024598    .7482  -.07862 -.012452    .7511   .00001
GW   260    1  -.07862 -.012452    .7511   -.0796       .0     .754   .00001
GW   261    1   -.0796       .0     .754  -.07862  .012452    .7569   .00001
GW   262    1  -.07862  .012452    .7569 -.075704  .024598    .7598   .00001
GW   263    1 -.075704  .024598    .7598 -.070924  .036138    .7627   .00001
GW   264    1 -.070924  .036138    .7627 -.064398  .046788    .7656   .00001
GW   265    1 -.064398  .046788    .7656 -.056286  .056286    .7685   .00001
GW   266    1 -.056286  .056286    .7685 -.046788  .064398    .7714   .00001
GW   267    1 -.046788  .064398    .7714 -.036138  .070924    .7743   .00001
GW   268    1 -.036138  .070924    .7743 -.024598  .075704    .7772   .00001
GW   269    1 -.024598  .075704    .7772 -.012452   .07862    .7801   .00001
GW   270    1 -.012452   .07862    .7801       .0    .0796     .783   .00001
GW   271    1       .0    .0796     .783  .012452   .07862    .7859   .00001
GW   272    1  .012452   .07862    .7859  .024598  .075704    .7888   .00001
GW   273    1  .024598  .075704    .7888  .036138  .070924    .7917   .00001
GW   274    1  .036138  .070924    .7917  .046788  .064398    .7946   .00001
GW   275    1  .046788  .064398    .7946  .056286  .056286    .7975   .00001
GW   276    1  .056286  .056286    .7975  .064398  .046788    .8004   .00001
GW   277    1  .064398  .046788    .8004  .070924  .036138    .8033   .00001
GW   278    1  .070924  .036138    .8033  .075704  .024598    .8062   .00001
GW   279    1  .075704  .024598    .8062   .07862  .012452    .8091   .00001
GW   280    1   .07862  .012452    .8091    .0796       .0     .812   .00001
GW   281    1    .0796       .0     .812   .07862 -.012452    .8149   .00001
GW   282    1   .07862 -.012452    .8149  .075704 -.024598    .8178   .00001
GW   283    1  .075704 -.024598    .8178  .070924 -.036138    .8207   .00001
GW   284    1  .070924 -.036138    .8207  .064398 -.046788    .8236   .00001
GW   285    1  .064398 -.046788    .8236  .056286 -.056286    .8265   .00001
GW   286    1  .056286 -.056286    .8265  .046788 -.064398    .8294   .00001
GW   287    1  .046788 -.064398    .8294  .036138 -.070924    .8323   .00001
GW   288    1  .036138 -.070924    .8323  .024598 -.075704    .8352   .00001
GW   289    1  .024598 -.075704    .8352  .012452  -.07862    .8381   .00001
GW   290    1  .012452  -.07862    .8381       .0   -.0796     .841   .00001
GW   291    1       .0   -.0796     .841 -.012452  -.07862    .8439   .00001
GW   292    1 -.012452  -.07862    .8439 -.024598 -.075704    .8468   .00001
GW   293    1 -.024598 -.075704    .8468 -.036138 -.070924    .8497   .00001
GW   294    1 -.036138 -.070924    .8497 -.046788 -.064398    .8526   .00001
GW   295    1 -.046788 -.064398    .8526 -.056286 -.056286    .8555   .00001
GW   296    1 -.056286 -.056286    .8555 -.064398 -.046788    .8584   .00001
GW   297    1 -.064398 -.046788    .8584 -.070924 -.036138    .8613   .00001
GW   298    1 -.070924 -.036138    .8613 -.075704 -.024598    .8642   .00001
GW   299    1 -.075704 -.024598    .8642  -.07862 -.012452    .8671   .00001
GW   300    1  -.07862 -.012452    .8671   -.0796       .0      .87   .00001
GW   301    1   -.0796       .0      .87  -.07862  .012452    .8729   .00001
GW   302    1  -.07862  .012452    .8729 -.075704  .024598    .8758   .00001
GW   303    1 -.075704  .024598    .8758 -.070924  .036138    .8787   .00001
GW   304    1 -.070924  .036138    .8787 -.064398  .046788    .8816   .00001
GW   305    1 -.064398  .046788    .8816 -.056286  .056286    .8845   .00001
GW   306    1 -.056286  .056286    .8845 -.046788  .064398    .8874   .00001
GW   307    1 -.046788  .064398    .8874 -.036138  .070924    .8903   .00001
GW   308    1 -.036138  .070924    .8903 -.024598  .075704    .8932   .00001
GW   309    1 -.024598  .075704    .8932 -.012452   .07862    .8961   .00001
GW   310    1 -.012452   .07862    .8961       .0    .0796     .899   .00001
GW   311    1       .0    .0796     .899  .012452   .07862    .9019   .00001
GW   312    1  .012452   .07862    .9019  .024598  .075704    .9048   .00001
GW   313    1  .024598  .075704    .9048  .036138  .070924    .9077   .00001
GW   314    1  .036138  .070924    .9077  .046788  .064398    .9106   .00001
GW   315    1  .046788  .064398    .9106  .056286  .056286    .9135   .00001
GW   316    1  .056286  .056286    .9135  .064398  .046788    .9164   .00001
GW   317    1  .064398  .046788    .9164  .070924  .036138    .9193   .00001
GW   318    1  .070924  .036138    .9193  .075704  .024598    .9222   .00001
GW   319    1  .075704  .024598    .9222   .07862  .012452    .9251   .00001
GW   320    1   .07862  .012452    .9251    .0796       .0     .928   .00001
GW   321    1    .0796       .0     .928   .07862 -.012452    .9309   .00001
GW   322    1   .07862 -.012452    .9309  .075704 -.024598    .9338   .00001
GW   323    1  .075704 -.024598    .9338  .070924 -.036138    .9367   .00001
GW   324    1  .070924 -.036138    .9367  .064398 -.046788    .9396   .00001
GW   325    1  .064398 -.046788    .9396  .056286 -.056286    .9425   .00001
GW   326    1  .056286 -.056286    .9425  .046788 -.064398    .9454   .00001
GW   327    1  .046788 -.064398    .9454  .036138 -.070924    .9483   .00001
GW   328    1  .036138 -.070924    .9483  .024598 -.075704    .9512   .00001
GW   329    1  .024598 -.075704    .9512  .012452  -.07862    .9541   .00001
GW   330    1  .012452  -.07862    .9541       .0   -.0796     .957   .00001
GW   331    1       .0   -.0796     .957 -.012452  -.07862    .9599   .00001
GW   332    1 -.012452  -.07862    .9599 -.024598 -.075704    .9628   .00001
GW   333    1 -.024598 -.075704    .9628 -.036138 -.070924    .9657   .00001
GW   334    1 -.036138 -.070924    .9657 -.046788 -.064398    .9686   .00001
GW   335    1 -.046788 -.064398    .9686 -.056286 -.056286    .9715   .00001
GW   336    1 -.056286 -.056286    .9715 -.064398 -.046788    .9744   .00001
GW   337    1 -.064398 -.046788    .9744 -.070924 -.036138    .9773   .00001
GW   338    1 -.070924 -.036138    .9773 -.075704 -.024598    .9802   .00001
GW   339    1 -.075704 -.024598    .9802  -.07862 -.012452    .9831   .00001
GW   340    1  -.07862 -.012452    .9831   -.0796       .0     .986   .00001
GW   341    1   -.0796       .0     .986  -.07862  .012452    .9889   .00001
GW   342    1  -.07862  .012452    .9889 -.075704  .024598    .9918   .00001
GW   343    1 -.075704  .024598    .9918 -.070924  .036138    .9947   .00001
GW   344    1 -.070924  .036138    .9947 -.064398  .046788    .9976   .00001
GW   345    1 -.064398  .046788    .9976 -.056286  .056286    1.001   .00001
GW   346    1 -.056286  .056286    1.001 -.046788  .064398    1.003   .00001
GW   347    1 -.046788  .064398    1.003 -.036138  .070924    1.006   .00001
GW   348    1 -.036138  .070924    1.006 -.024598  .075704    1.009   .00001
GW   349    1 -.024598  .075704    1.009 -.012452   .07862    1.012   .00001
GW   350    1 -.012452   .07862    1.012       .0    .0796    1.015   .00001
GW   351    1       .0    .0796    1.015  .012452   .07862    1.018   .00001
GW   352    1  .012452   .07862    1.018  .024598  .075704    1.021   .00001
GW   353    1  .024598  .075704    1.021  .036138  .070924    1.024   .00001
GW   354    1  .036138  .070924    1.024  .046788  .064398    1.027   .00001
GW   355    1  .046788  .064398    1.027  .056286  .056286     1.03   .00001
GW   356    1  .056286  .056286     1.03  .064398  .046788    1.032   .00001
GW   357    1  .064398  .046788    1.032  .070924  .036138    1.035   .00001
GW   358    1  .070924  .036138    1.035  .075704  .024598    1.038   .00001
GW   359    1  .075704  .024598    1.038   .07862  .012452    1.041   .00001
GW   360    1   .07862  .012452    1.041    .0796       .0    1.044   .00001
GW   361    1    .0796       .0    1.044   .07862 -.012452    1.047   .00001
GW   362    1   .07862 -.012452    1.047  .075704 -.024598     1.05   .00001
GW   363    1  .075704 -.024598     1.05  .070924 -.036138    1.053   .00001
GW   364    1  .070924 -.036138    1.053  .064398 -.046788    1.056   .00001
GW   365    1  .064398 -.046788    1.056  .056286 -.056286    1.059   .00001
GW   366    1  .056286 -.056286    1.059  .046788 -.064398    1.061   .00001
GW   367    1  .046788 -.064398    1.061  .036138 -.070924    1.064   .00001
GW   368    1  .036138 -.070924    1.064  .024598 -.075704    1.067   .00001
GW   369    1  .024598 -.075704    1.067  .012452  -.07862     1.07   .00001
GW   370    1  .012452  -.07862     1.07       .0   -.0796    1.073   .00001
GW   371    1       .0   -.0796    1.073 -.012452  -.07862    1.076   .00001
GW   372    1 -.012452  -.07862    1.076 -.024598 -.075704    1.079   .00001
GW   373    1 -.024598 -.075704    1.079 -.036138 -.070924    1.082   .00001
GW   374    1 -.036138 -.070924    1.082 -.046788 -.064398    1.085   .00001
GW   375    1 -.046788 -.064398    1.085 -.056286 -.056286    1.088   .00001
GW   376    1 -.056286 -.056286    1.088 -.064398 -.046788     1.09   .00001
GW   377    1 -.064398 -.046788     1.09 -.070924 -.036138    1.093   .00001
GW   378    1 -.070924 -.036138    1.093 -.075704 -.024598    1.096   .00001
GW   379    1 -.075704 -.024598    1.096  -.07862 -.012452    1.099   .00001
GW   380    1  -.07862 -.012452    1.099   -.0796       .0    1.102   .00001
GW   381    1   -.0796       .0    1.102  -.07862  .012452    1.105   .00001
GW   382    1  -.07862  .012452    1.105 -.075704  .024598    1.108   .00001
GW   383    1 -.075704  .024598    1.108 -.070924  .036138    1.111   .00001
GW   384    1 -.070924  .036138    1.111 -.064398  .046788    1.114   .00001
GW   385    1 -.064398  .046788    1.114 -.056286  .056286    1.117   .00001
GW   386    1 -.056286  .056286    1.117 -.046788  .064398    1.119   .00001
GW   387    1 -.046788  .064398    1.119 -.036138  .070924    1.122   .00001