CM Length L in mtr. = 1.25
CM Radius R1 in cm. = 15.92
CM Radius R2 in cm. = 15.92
CM Number of turns = 5
CM Segments per turn = 40
CM Rotate X, Y, Z = 0, 0, 0
CM Move X, Y, Z = 0, 0, 0
CE
GW	1	1	.1592	0	0	.15724	.024904	.00625	.00001
GW	2	1	.15724	.024904	.00625	.151408	.049196	.0125	.00001
GW	3	1	.151408	.049196	.0125	.141848	.072275	.01875	.00001
GW	4	1	.141848	.072275	.01875	.128796	.093575	.025	.00001
GW	5	1	.128796	.093575	.025	.112571	.112571	.03125	.00001
GW	6	1	.112571	.112571	.03125	.093575	.128796	.0375	.00001
GW	7	1	.093575	.128796	.0375	.072275	.141848	.04375	.00001
GW	8	1	.072275	.141848	.04375	.049196	.151408	.05	.00001
GW	9	1	.049196	.151408	.05	.024904	.15724	.05625	.00001
GW	10	1	.024904	.15724	.05625	0	.1592	.0625	.00001
GW	11	1	0	.1592	.0625	-.024904	.15724	.06875	.00001
GW	12	1	-.024904	.15724	.06875	-.049196	.151408	.075	.00001
GW	13	1	-.049196	.151408	.075	-.072275	.141848	.08125	.00001
GW	14	1	-.072275	.141848	.08125	-.093575	.128796	.0875	.00001
GW	15	1	-.093575	.128796	.0875	-.112571	.112571	.09375	.00001
GW	16	1	-.112571	.112571	.09375	-.128796	.093575	.1	.00001
GW	17	1	-.128796	.093575	.1	-.141848	.072275	.10625	.00001
GW	18	1	-.141848	.072275	.10625	-.151408	.049196	.1125	.00001
GW	19	1	-.151408	.049196	.1125	-.15724	.024904	.11875	.00001
GW	20	1	-.15724	.024904	.11875	-.1592	0	.125	.00001
GW	21	1	-.1592	0	.125	-.15724	-.024904	.13125	.00001
GW	22	1	-.15724	-.024904	.13125	-.151408	-.049196	.1375	.00001
GW	23	1	-.151408	-.049196	.1375	-.141848	-.072275	.14375	.00001
GW	24	1	-.141848	-.072275	.14375	-.128796	-.093575	.15	.00001
GW	25	1	-.128796	-.093575	.15	-.112571	-.112571	.15625	.00001
GW	26	1	-.112571	-.112571	.15625	-.093575	-.128796	.1625	.00001
GW	27	1	-.093575	-.128796	.1625	-.072275	-.141848	.16875	.00001
GW	28	1	-.072275	-.141848	.16875	-.049196	-.151408	.175	.00001
GW	29	1	-.049196	-.151408	.175	-.024904	-.15724	.18125	.00001
GW	30	1	-.024904	-.15724	.18125	0	-.1592	.1875	.00001
GW	31	1	0	-.1592	.1875	.024904	-.15724	.19375	.00001
GW	32	1	.024904	-.15724	.19375	.049196	-.151408	.2	.00001
GW	33	1	.049196	-.151408	.2	.072275	-.141848	.20625	.00001
GW	34	1	.072275	-.141848	.20625	.093575	-.128796	.2125	.00001
GW	35	1	.093575	-.128796	.2125	.112571	-.112571	.21875	.00001
GW	36	1	.112571	-.112571	.21875	.128796	-.093575	.225	.00001
GW	37	1	.128796	-.093575	.225	.141848	-.072275	.23125	.00001
GW	38	1	.141848	-.072275	.23125	.151408	-.049196	.2375	.00001
GW	39	1	.151408	-.049196	.2375	.15724	-.024904	.24375	.00001
GW	40	1	.15724	-.024904	.24375	.1592	0	.25	.00001
GW	41	1	.1592	0	.25	.15724	.024904	.25625	.00001
GW	42	1	.15724	.024904	.25625	.151408	.049196	.2625	.00001
GW	43	1	.151408	.049196	.2625	.141848	.072275	.26875	.00001
GW	44	1	.141848	.072275	.26875	.128796	.093575	.275	.00001
GW	45	1	.128796	.093575	.275	.112571	.112571	.28125	.00001
GW	46	1	.112571	.112571	.28125	.093575	.128796	.2875	.00001
GW	47	1	.093575	.128796	.2875	.072275	.141848	.29375	.00001
GW	48	1	.072275	.141848	.29375	.049196	.151408	.3	.00001
GW	49	1	.049196	.151408	.3	.024904	.15724	.30625	.00001
GW	50	1	.024904	.15724	.30625	0	.1592	.3125	.00001
GW	51	1	0	.1592	.3125	-.024904	.15724	.31875	.00001
GW	52	1	-.024904	.15724	.31875	-.049196	.151408	.325	.00001
GW	53	1	-.049196	.151408	.325	-.072275	.141848	.33125	.00001
GW	54	1	-.072275	.141848	.33125	-.093575	.128796	.3375	.00001
GW	55	1	-.093575	.128796	.3375	-.112571	.112571	.34375	.00001
GW	56	1	-.112571	.112571	.34375	-.128796	.093575	.35	.00001
GW	57	1	-.128796	.093575	.35	-.141848	.072275	.35625	.00001
GW	58	1	-.141848	.072275	.35625	-.151408	.049196	.3625	.00001
GW	59	1	-.151408	.049196	.3625	-.15724	.024904	.36875	.00001
GW	60	1	-.15724	.024904	.36875	-.1592	0	.375	.00001
GW	61	1	-.1592	0	.375	-.15724	-.024904	.38125	.00001
GW	62	1	-.15724	-.024904	.38125	-.151408	-.049196	.3875	.00001
GW	63	1	-.151408	-.049196	.3875	-.141848	-.072275	.39375	.00001
GW	64	1	-.141848	-.072275	.39375	-.128796	-.093575	.4	.00001
GW	65	1	-.128796	-.093575	.4	-.112571	-.112571	.40625	.00001
GW	66	1	-.112571	-.112571	.40625	-.093575	-.128796	.4125	.00001
GW	67	1	-.093575	-.128796	.4125	-.072275	-.141848	.41875	.00001
GW	68	1	-.072275	-.141848	.41875	-.049196	-.151408	.425	.00001
GW	69	1	-.049196	-.151408	.425	-.024904	-.15724	.43125	.00001
GW	70	1	-.024904	-.15724	.43125	0	-.1592	.4375	.00001
GW	71	1	0	-.1592	.4375	.024904	-.15724	.44375	.00001
GW	72	1	.024904	-.15724	.44375	.049196	-.151408	.45	.00001
GW	73	1	.049196	-.151408	.45	.072275	-.141848	.45625	.00001
GW	74	1	.072275	-.141848	.45625	.093575	-.128796	.4625	.00001
GW	75	1	.093575	-.128796	.4625	.112571	-.112571	.46875	.00001
GW	76	1	.112571	-.112571	.46875	.128796	-.093575	.475	.00001
GW	77	1	.128796	-.093575	.475	.141848	-.072275	.48125	.00001
GW	78	1	.141848	-.072275	.48125	.151408	-.049196	.4875	.00001
GW	79	1	.151408	-.049196	.4875	.15724	-.024904	.49375	.00001
GW	80	1	.15724	-.024904	.49375	.1592	0	.5	.00001
GW	81	1	.1592	0	.5	.15724	.024904	.50625	.00001
GW	82	1	.15724	.024904	.50625	.151408	.049196	.5125	.00001
GW	83	1	.151408	.049196	.5125	.141848	.072275	.51875	.00001
GW	84	1	.141848	.072275	.51875	.128796	.093575	.525	.00001
GW	85	1	.128796	.093575	.525	.112571	.112571	.53125	.00001
GW	86	1	.112571	.112571	.53125	.093575	.128796	.5375	.00001
GW	87	1	.093575	.128796	.5375	.072275	.141848	.54375	.00001
GW	88	1	.072275	.141848	.54375	.049196	.151408	.55	.00001
GW	89	1	.049196	.151408	.55	.024904	.15724	.55625	.00001
GW	90	1	.024904	.15724	.55625	0	.1592	.5625	.00001
GW	91	1	0	.1592	.5625	-.024904	.15724	.56875	.00001
GW	92	1	-.024904	.15724	.56875	-.049196	.151408	.575	.00001
GW	93	1	-.049196	.151408	.575	-.072275	.141848	.58125	.00001
GW	94	1	-.072275	.141848	.58125	-.093575	.128796	.5875	.00001
GW	95	1	-.093575	.128796	.5875	-.112571	.112571	.59375	.00001
GW	96	1	-.112571	.112571	.59375	-.128796	.093575	.6	.00001
GW	97	1	-.128796	.093575	.6	-.141848	.072275	.60625	.00001
GW	98	1	-.141848	.072275	.60625	-.151408	.049196	.6125	.00001
GW	99	1	-.151408	.049196	.6125	-.15724	.024904	.61875	.00001
GW	100	1	-.15724	.024904	.61875	-.1592	0	.625	.00001
GW	101	1	-.1592	0	.625	-.15724	-.024904	.63125	.00001
GW	102	1	-.15724	-.024904	.63125	-.151408	-.049196	.6375	.00001
GW	103	1	-.151408	-.049196	.6375	-.141848	-.072275	.64375	.00001
GW	104	1	-.141848	-.072275	.64375	-.128796	-.093575	.65	.00001
GW	105	1	-.128796	-.093575	.65	-.112571	-.112571	.65625	.00001
GW	106	1	-.112571	-.112571	.65625	-.093575	-.128796	.6625	.00001
GW	107	1	-.093575	-.128796	.6625	-.072275	-.141848	.66875	.00001
GW	108	1	-.072275	-.141848	.66875	-.049196	-.151408	.675	.00001
GW	109	1	-.049196	-.151408	.675	-.024904	-.15724	.68125	.00001
GW	110	1	-.024904	-.15724	.68125	0	-.1592	.6875	.00001
GW	111	1	0	-.1592	.6875	.024904	-.15724	.69375	.00001
GW	112	1	.024904	-.15724	.69375	.049196	-.151408	.7	.00001
GW	113	1	.049196	-.151408	.7	.072275	-.141848	.70625	.00001
GW	114	1	.072275	-.141848	.70625	.093575	-.128796	.7125	.00001
GW	115	1	.093575	-.128796	.7125	.112571	-.112571	.71875	.00001
GW	116	1	.112571	-.112571	.71875	.128796	-.093575	.725	.00001
GW	117	1	.128796	-.093575	.725	.141848	-.072275	.73125	.00001
GW	118	1	.141848	-.072275	.73125	.151408	-.049196	.7375	.00001
GW	119	1	.151408	-.049196	.7375	.15724	-.024904	.74375	.00001
GW	120	1	.15724	-.024904	.74375	.1592	0	.75	.00001
GW	121	1	.1592	0	.75	.15724	.024904	.75625	.00001
GW	122	1	.15724	.024904	.75625	.151408	.049196	.7625	.00001
GW	123	1	.151408	.049196	.7625	.141848	.072275	.76875	.00001
GW	124	1	.141848	.072275	.76875	.128796	.093575	.775	.00001
GW	125	1	.128796	.093575	.775	.112571	.112571	.78125	.00001
GW	126	1	.112571	.112571	.78125	.093575	.128796	.7875	.00001
GW	127	1	.093575	.128796	.7875	.072275	.141848	.79375	.00001
GW	128	1	.072275	.141848	.79375	.049196	.151408	.8	.00001
GW	129	1	.049196	.151408	.8	.024904	.15724	.80625	.00001
GW	130	1	.024904	.15724	.80625	0	.1592	.8125	.00001
GW	131	1	0	.1592	.8125	-.024904	.15724	.81875	.00001
GW	132	1	-.024904	.15724	.81875	-.049196	.151408	.825	.00001
GW	133	1	-.049196	.151408	.825	-.072275	.141848	.83125	.00001
GW	134	1	-.072275	.141848	.83125	-.093575	.128796	.8375	.00001
GW	135	1	-.093575	.128796	.8375	-.112571	.112571	.84375	.00001
GW	136	1	-.112571	.112571	.84375	-.128796	.093575	.85	.00001
GW	137	1	-.128796	.093575	.85	-.141848	.072275	.85625	.00001
GW	138	1	-.141848	.072275	.85625	-.151408	.049196	.8625	.00001
GW	139	1	-.151408	.049196	.8625	-.15724	.024904	.86875	.00001
GW	140	1	-.15724	.024904	.86875	-.1592	0	.875	.00001
GW	141	1	-.1592	0	.875	-.15724	-.024904	.88125	.00001
GW	142	1	-.15724	-.024904	.88125	-.151408	-.049196	.8875	.00001
GW	143	1	-.151408	-.049196	.8875	-.141848	-.072275	.89375	.00001
GW	144	1	-.141848	-.072275	.89375	-.128796	-.093575	.9	.00001
GW	145	1	-.128796	-.093575	.9	-.112571	-.112571	.90625	.00001
GW	146	1	-.112571	-.112571	.90625	-.093575	-.128796	.9125	.00001
GW	147	1	-.093575	-.128796	.9125	-.072275	-.141848	.91875	.00001
GW	148	1	-.072275	-.141848	.91875	-.049196	-.151408	.925	.00001
GW	149	1	-.049196	-.151408	.925	-.024904	-.15724	.93125	.00001
GW	150	1	-.024904	-.15724	.93125	0	-.1592	.9375	.00001
GW	151	1	0	-.1592	.9375	.024904	-.15724	.94375	.00001
GW	152	1	.024904	-.15724	.94375	.049196	-.151408	.95	.00001
GW	153	1	.049196	-.151408	.95	.072275	-.141848	.95625	.00001
GW	154	1	.072275	-.141848	.95625	.093575	-.128796	.9625	.00001
GW	155	1	.093575	-.128796	.9625	.112571	-.112571	.96875	.00001
GW	156	1	.112571	-.112571	.96875	.128796	-.093575	.975	.00001
GW	157	1	.128796	-.093575	.975	.141848	-.072275	.98125	.00001
GW	158	1	.141848	-.072275	.98125	.151408	-.049196	.9875	.00001
GW	159	1	.151408	-.049196	.9875	.15724	-.024904	.99375	.00001
GW	160	1	.15724	-.024904	.99375	.1592	0	1.0	.00001
GW	161	1	.1592	0	1.0	.15724	.024904	1.006	.00001
GW	162	1	.15724	.024904	1.006	.151408	.049196	1.013	.00001
GW	163	1	.151408	.049196	1.013	.141848	.072275	1.019	.00001
GW	164	1	.141848	.072275	1.019	.128796	.093575	1.025	.00001
GW	165	1	.128796	.093575	1.025	.112571	.112571	1.031	.00001
GW	166	1	.112571	.112571	1.031	.093575	.128796	1.038	.00001
GW	167	1	.093575	.128796	1.038	.072275	.141848	1.044	.00001
GW	168	1	.072275	.141848	1.044	.049196	.151408	1.05	.00001
GW	169	1	.049196	.151408	1.05	.024904	.15724	1.056	.00001
GW	170	1	.024904	.15724	1.056	0	.1592	1.063	.00001
GW	171	1	0	.1592	1.063	-.024904	.15724	1.069	.00001
GW	172	1	-.024904	.15724	1.069	-.049196	.151408	1.075	.00001
GW	173	1	-.049196	.151408	1.075	-.072275	.141848	1.081	.00001
GW	174	1	-.072275	.141848	1.081	-.093575	.128796	1.088	.00001
GW	175	1	-.093575	.128796	1.088	-.112571	.112571	1.094	.00001
GW	176	1	-.112571	.112571	1.094	-.128796	.093575	1.1	.00001
GW	177	1	-.128796	.093575	1.1	-.141848	.072275	1.106	.00001
GW	178	1	-.141848	.072275	1.106	-.151408	.049196	1.113	.00001
GW	179	1	-.151408	.049196	1.113	-.15724	.024904	1.119	.00001
GW	180	1	-.15724	.024904	1.119	-.1592	0	1.125	.00001
GW	181	1	-.1592	0	1.125	-.15724	-.024904	1.131	.00001
GW	182	1	-.15724	-.024904	1.131	-.151408	-.049196	1.138	.00001
GW	183	1	-.151408	-.049196	1.138	-.141848	-.072275	1.144	.00001
GW	184	1	-.141848	-.072275	1.144	-.128796	-.093575	1.15	.00001
GW	185	1	-.128796	-.093575	1.15	-.112571	-.112571	1.156	.00001
GW	186	1	-.112571	-.112571	1.156	-.093575	-.128796	1.163	.00001
GW	187	1	-.093575	-.128796	1.163	-.072275	-.141848	1.169	.00001
GW	188	1	-.072275	-.141848	1.169	-.049196	-.151408	1.175	.00001
GW	189	1	-.049196	-.151408	1.175	-.024904	-.15724	1.181	.00001
GW	190	1	-.024904	-.15724	1.181	0	-.1592	1.188	.00001
GW	191	1	0	-.1592	1.188	.024904	-.15724	1.194	.00001
GW	192	1	.024904	-.15724	1.194	.049196	-.151408	1.2	.00001
GW	193	1	.049196	-.151408	1.2	.072275	-.141848	1.206	.00001
GW	194	1	.072275	-.141848	1.206	.093575	-.128796	1.213	.00001
GW	195	1	.093575	-.128796	1.213	.112571	-.112571	1.219	.00001
GW	196	1	.112571	-.112571	1.219	.128796	-.093575	1.225	.00001
GW	197	1	.128796	-.093575	1.225	.141848	-.072275	1.231	.00001
GW	198	1	.141848	-.072275	1.231	.151408	-.049196	1.238	.00001
GW	199	1	.151408	-.049196	1.238	.15724	-.024904	1.244	.00001
GW	200	1	.15724	-.024904	1.244	.1592	0	1.25	.00001
GE	1
GN	1
EK
EX	0	1	1	0	1	0	0	0
FR	0	0	0	0	299.8	0
EN
